Version 4
SHEET 1 2772 680
WIRE 2112 -256 2112 -336
WIRE 1824 -240 1712 -240
WIRE 1888 -240 1824 -240
WIRE 1712 -224 1712 -240
WIRE 1888 -208 1856 -208
WIRE 2560 -208 2544 -208
WIRE 2720 -208 2624 -208
WIRE 1856 -144 1856 -208
WIRE 1888 -144 1856 -144
WIRE 1712 -128 1712 -144
WIRE 576 -112 416 -112
WIRE 1856 -112 1856 -144
WIRE 1888 -112 1856 -112
WIRE 2336 -112 2304 -112
WIRE 2432 -112 2336 -112
WIRE 2544 -112 2544 -208
WIRE 2544 -112 2512 -112
WIRE 2576 -112 2544 -112
WIRE -176 -96 -208 -96
WIRE 0 -96 -96 -96
WIRE 2720 -96 2720 -208
WIRE 2720 -96 2640 -96
WIRE 1856 -80 1856 -112
WIRE 1888 -80 1856 -80
WIRE 2576 -80 2544 -80
WIRE 0 -48 0 -96
WIRE 192 -48 0 -48
WIRE 288 -48 256 -48
WIRE 304 -48 288 -48
WIRE 416 -48 416 -112
WIRE 416 -48 384 -48
WIRE 832 -48 800 -48
WIRE 928 -48 832 -48
WIRE 1296 -48 992 -48
WIRE 2544 -48 2544 -80
WIRE -336 -32 -384 -32
WIRE -224 -32 -256 -32
WIRE -224 0 -224 -32
WIRE -208 0 -208 -96
WIRE -208 0 -224 0
WIRE -128 0 -208 0
WIRE 416 0 416 -48
WIRE 464 0 416 0
WIRE 1296 0 1296 -48
WIRE 1824 0 1296 0
WIRE 1888 0 1824 0
WIRE 2336 0 2336 -112
WIRE 2336 0 2304 0
WIRE 0 16 0 -48
WIRE 0 16 -64 16
WIRE 576 16 576 -112
WIRE 576 16 528 16
WIRE 720 16 720 -48
WIRE 720 16 576 16
WIRE 992 16 992 -48
WIRE 1152 16 992 16
WIRE -128 32 -224 32
WIRE 464 32 432 32
WIRE 1296 32 1296 0
WIRE 1296 32 1216 32
WIRE 1856 32 1856 -80
WIRE 1888 32 1856 32
WIRE 2336 32 2304 32
WIRE 832 48 832 -48
WIRE 864 48 832 48
WIRE 1040 48 944 48
WIRE 1152 48 1040 48
WIRE 2336 48 2336 32
WIRE 288 64 288 -48
WIRE 320 64 288 64
WIRE 432 64 432 32
WIRE 432 64 384 64
WIRE 1856 64 1856 32
WIRE -336 96 -384 96
WIRE -224 96 -224 32
WIRE -224 96 -256 96
WIRE 2112 96 2112 64
WIRE 1040 128 1040 48
WIRE 1040 128 992 128
WIRE 2336 144 2336 128
WIRE 432 176 432 64
WIRE 432 176 400 176
FLAG 688 -480 vcc
FLAG 688 -400 0
FLAG 832 -480 vee
FLAG 832 -400 0
FLAG -96 -16 vcc
FLAG -96 48 vee
FLAG 496 -16 vcc
FLAG 496 48 vee
FLAG 1184 0 vcc
FLAG 1184 64 vee
FLAG -464 -32 0
FLAG -464 96 0
FLAG 320 176 0
FLAG 928 128 0
FLAG 2336 144 0
FLAG 1856 64 0
FLAG 1712 -128 0
FLAG 1824 -240 X
FLAG 1824 0 Y
FLAG 2112 -336 vcc
FLAG 2112 96 vee
FLAG 2608 -128 vcc
FLAG 2608 -64 vee
FLAG 2544 -48 0
SYMBOL voltage 688 -496 R0
WINDOW 123 0 0 Left 0
WINDOW 39 0 0 Left 0
SYMATTR InstName V1
SYMATTR Value 12
SYMBOL voltage 832 -496 R0
WINDOW 123 0 0 Left 0
WINDOW 39 0 0 Left 0
SYMATTR InstName V2
SYMATTR Value -12
SYMBOL OpAmps\\UniversalOpAmp -96 16 R0
SYMATTR InstName U1
SYMBOL voltage -368 -32 R90
WINDOW 0 -32 56 VBottom 2
WINDOW 3 32 56 VTop 2
WINDOW 123 -4 56 VBottom 2
WINDOW 39 0 0 Left 0
SYMATTR InstName V3
SYMATTR Value SINE(0 1 100)
SYMATTR Value2 AC 1
SYMBOL voltage -368 96 R90
WINDOW 0 -32 56 VBottom 2
WINDOW 3 32 56 VTop 2
WINDOW 123 60 56 VTop 2
WINDOW 39 0 0 Left 0
SYMATTR InstName V4
SYMATTR Value SINE(0 1 1.59k)
SYMATTR Value2 AC 1
SYMBOL OpAmps\\UniversalOpAmp 496 16 R0
SYMATTR InstName U2
SYMBOL OpAmps\\UniversalOpAmp 1184 32 R0
SYMATTR InstName U3
SYMBOL res -80 -112 R90
WINDOW 0 0 56 VBottom 2
WINDOW 3 32 56 VTop 2
SYMATTR InstName R1
SYMATTR Value 2k
SYMBOL res -240 -48 R90
WINDOW 0 0 56 VBottom 2
WINDOW 3 32 56 VTop 2
SYMATTR InstName R2
SYMATTR Value 1k
SYMBOL res -240 80 R90
WINDOW 0 0 56 VBottom 2
WINDOW 3 32 56 VTop 2
SYMATTR InstName R3
SYMATTR Value 1k
SYMBOL cap 256 -64 R90
WINDOW 0 0 32 VBottom 2
WINDOW 3 32 32 VTop 2
SYMATTR InstName C1
SYMATTR Value 0.01µ
SYMBOL cap 384 48 R90
WINDOW 0 0 32 VBottom 2
WINDOW 3 32 32 VTop 2
SYMATTR InstName C2
SYMATTR Value 0.01µ
SYMBOL cap 992 -64 R90
WINDOW 0 0 32 VBottom 2
WINDOW 3 32 32 VTop 2
SYMATTR InstName C3
SYMATTR Value 0.01µ
SYMBOL cap 992 112 R90
WINDOW 0 0 32 VBottom 2
WINDOW 3 32 32 VTop 2
SYMATTR InstName C4
SYMATTR Value 0.01µ
SYMBOL res 400 -64 R90
WINDOW 0 0 56 VBottom 2
WINDOW 3 32 56 VTop 2
SYMATTR InstName R4
SYMATTR Value 10k
SYMBOL res 416 160 R90
WINDOW 0 0 56 VBottom 2
WINDOW 3 32 56 VTop 2
SYMATTR InstName R5
SYMATTR Value 10k
SYMBOL res 816 -64 R90
WINDOW 0 0 56 VBottom 2
WINDOW 3 32 56 VTop 2
SYMATTR InstName R6
SYMATTR Value 10k
SYMBOL res 960 32 R90
WINDOW 0 0 56 VBottom 2
WINDOW 3 32 56 VTop 2
SYMATTR InstName R7
SYMATTR Value 10k
SYMBOL AD734 2112 -96 R0
SYMATTR InstName U4
SYMBOL res 2320 32 R0
SYMATTR InstName R9
SYMATTR Value 1Meg
SYMBOL voltage 1712 -240 R0
WINDOW 0 -32 56 VBottom 2
WINDOW 3 32 56 VTop 2
WINDOW 123 -4 56 VBottom 2
WINDOW 39 0 0 Left 0
SYMATTR InstName V7
SYMATTR Value SINE(0 1 100)
SYMATTR Value2 AC 1
SYMBOL res 2528 -128 R90
WINDOW 0 0 56 VBottom 2
WINDOW 3 32 56 VTop 2
SYMATTR InstName R8
SYMATTR Value 10k
SYMBOL cap 2624 -224 R90
WINDOW 0 0 32 VBottom 2
WINDOW 3 32 32 VTop 2
SYMATTR InstName C5
SYMATTR Value 0.01µ
SYMBOL OpAmps\\UniversalOpAmp 2608 -96 R0
SYMATTR InstName U5
TEXT 1752 208 Left 2 !.tran 10m
